Version 4
SHEET 1 880 680
WIRE -144 -224 -336 -224
WIRE 32 -224 -144 -224
WIRE 48 -224 32 -224
WIRE 352 -224 352 -304
WIRE 352 -224 256 -224
WIRE 128 -176 128 -224
WIRE 208 -176 208 -192
WIRE 208 -176 128 -176
WIRE 400 -128 368 -128
WIRE -144 -112 -144 -224
WIRE -704 -96 -864 -96
WIRE -464 -64 -560 -64
WIRE 352 -64 352 -224
WIRE 368 -64 368 -128
WIRE 32 -48 32 -224
WIRE 128 -48 32 -48
WIRE 224 -48 192 -48
WIRE 336 -48 304 -48
WIRE -704 -32 -768 -32
WIRE 464 -32 464 -128
WIRE 464 -32 400 -32
WIRE 528 -32 464 -32
WIRE 624 -32 592 -32
WIRE 336 -16 304 -16
WIRE -144 0 -144 -32
WIRE -32 0 -144 0
WIRE 624 32 624 -32
WIRE -144 48 -144 0
WIRE 304 80 304 -16
WIRE 352 80 352 0
WIRE 352 80 304 80
WIRE 368 80 368 64
WIRE 368 80 352 80
WIRE -864 96 -864 -96
WIRE -768 96 -768 -32
WIRE -464 96 -464 -64
WIRE -336 96 -336 -224
WIRE -336 96 -464 96
WIRE -208 96 -336 96
WIRE -336 128 -336 96
WIRE -336 240 -336 192
WIRE -144 240 -144 144
WIRE -144 240 -336 240
WIRE 32 240 32 48
WIRE 32 240 -144 240
FLAG 304 80 0
FLAG 624 112 0
FLAG -144 240 0
SYMBOL EXTRA\\Misc\\pot 208 -224 R270
WINDOW 3 16 0 Left 0
SYMATTR InstName U2
SYMATTR Value R=25k
SYMBOL npn -208 48 R0
SYMATTR InstName Q1
SYMATTR Value BF199
SYMBOL npn -32 -48 R0
SYMATTR InstName Q2
SYMATTR Value BF199
SYMBOL cap -352 128 R0
SYMATTR InstName C1
SYMATTR Value 2p
SYMBOL ind -160 -128 R0
SYMATTR InstName L1
SYMATTR Value 0.15µ
SYMBOL cap 192 -64 R90
WINDOW 0 0 32 VBottom 2
WINDOW 3 32 32 VTop 2
SYMATTR InstName C2
SYMATTR Value 100n
SYMBOL res 320 -64 R90
WINDOW 0 0 56 VBottom 2
WINDOW 3 32 56 VTop 2
SYMATTR InstName R1
SYMATTR Value 10k
SYMBOL EXTRA\\AudioOpamp\\NS\\LM3886-1 368 -96 R0
SYMATTR InstName U1
SYMBOL cap 352 0 R0
SYMATTR InstName C3
SYMATTR Value 100n
SYMBOL cap 464 -144 R90
WINDOW 0 0 32 VBottom 2
WINDOW 3 32 32 VTop 2
SYMATTR InstName C4
SYMATTR Value 10µ
SYMBOL res 144 -240 R90
WINDOW 0 0 56 VBottom 2
WINDOW 3 32 56 VTop 2
SYMATTR InstName R2
SYMATTR Value 4,7k
SYMBOL cap 592 -48 R90
WINDOW 0 0 32 VBottom 2
WINDOW 3 32 32 VTop 2
SYMATTR InstName C5
SYMATTR Value 470µ
SYMBOL res 608 16 R0
SYMATTR InstName R3
SYMATTR Value 1k
SYMBOL MiniSyms4\\voltage- 352 -320 R180
WINDOW 0 11 11 Left 0
WINDOW 3 7 -11 Left 0
WINDOW 123 0 0 Left 0
WINDOW 39 0 0 Left 0
SYMATTR InstName V1
SYMATTR Value 5v
SYMBOL SpecialFunctions\\modulate -704 -96 R0
WINDOW 3 16 -20 Left 2
SYMATTR InstName A1
SYMATTR Value mark=900k space=1200k
SYMBOL MiniSyms4\\voltage- -864 112 R0
WINDOW 123 0 0 Left 0
WINDOW 39 0 0 Left 0
SYMATTR InstName V2
SYMATTR Value SINE(0.5 0.5 7k)
SYMBOL MiniSyms4\\voltage- -768 112 R0
WINDOW 123 0 0 Left 0
WINDOW 39 0 0 Left 0
SYMATTR InstName V3
SYMATTR Value 0.2
TEXT -876 264 Left 2 !.tran 5m
