Version 4
SHEET 1 880 680
WIRE -48 96 -144 96
WIRE 128 96 32 96
WIRE 288 96 128 96
WIRE 128 144 128 96
WIRE 288 144 288 96
WIRE -144 160 -144 96
WIRE -144 256 -144 240
WIRE 128 256 128 208
WIRE 128 256 -144 256
WIRE 288 256 288 208
WIRE 288 256 128 256
FLAG -144 256 0
SYMBOL diode 272 144 R0
SYMATTR InstName D2
SYMATTR Value 1N914
SYMBOL diode 144 208 R180
WINDOW 0 24 64 Left 2
WINDOW 3 24 0 Left 2
SYMATTR InstName D1
SYMATTR Value 1N914
SYMBOL res 48 80 R90
WINDOW 0 0 56 VBottom 2
WINDOW 3 32 56 VTop 2
SYMATTR InstName R1
SYMATTR Value 1k
SYMBOL voltage -144 144 R0
WINDOW 123 0 0 Left 0
WINDOW 39 0 0 Left 0
SYMATTR InstName V1
SYMATTR Value SINE(0 2 50)
TEXT -176 280 Left 2 !.tran 100m
