Version 4
SHEET 1 880 680
WIRE 144 64 64 64
WIRE 336 64 208 64
WIRE 448 64 336 64
WIRE 336 128 336 64
WIRE 448 128 448 64
WIRE 64 144 64 64
WIRE 64 256 64 224
WIRE 336 256 336 192
WIRE 336 256 64 256
WIRE 448 256 448 208
WIRE 448 256 336 256
FLAG 64 256 0
SYMBOL voltage 64 128 R0
WINDOW 123 0 0 Left 0
WINDOW 39 0 0 Left 0
SYMATTR InstName V1
SYMATTR Value SINE(0 5 50)
SYMBOL diode 144 80 R270
WINDOW 0 32 32 VTop 2
WINDOW 3 0 32 VBottom 2
SYMATTR InstName D1
SYMATTR Value 1N914
SYMBOL polcap 320 128 R0
SYMATTR InstName C1
SYMATTR Value 10µ
SYMBOL res 432 112 R0
SYMATTR InstName R1
SYMATTR Value 5k
TEXT 30 280 Left 2 !.tran 100m
